LAMMPS (29 Sep 2021 - Update 2)
units metal
atom_style atomic # use charge if some atoms are charged
dimension 3

# set newton on for pair_allegro (off for pair_nequip)
newton off
boundary p p p
read_data LBS.lmp
Reading data file ...
  orthogonal box = (0.0000000 0.0000000 0.0000000) to (8.1500000 10.070000 12.318000)
  reading atoms ...
  56 atoms

# for running a larger system, simply replicate the system in space
# replicate 2 2 1

# nequip pair style
pair_style	nequip
pair_coeff	* * ../../training/iteration_1-deployed.pth Li B S
mass 1 6.941
mass 2 10.811
mass 3 32.065

# initialise velocities
velocity all create 1000 12345 loop all

neighbor 1.0 bin
neigh_modify delay 5 every 1

timestep 0.001
thermo 100

group Lithium type 1
24 atoms in group Lithium
group Boron type 2
8 atoms in group Boron
group Sulfur type 3
24 atoms in group Sulfur

# nose-hoover thermostat
fix 1 all nvt temp 1000 1000 0.05
compute 1 Lithium msd com yes
compute 2 Boron msd com yes
compute 3 Sulfur msd com yes

# outputting important quantities
thermo_style custom step temp pe etotal press c_1[*] c_2[*] c_3[*]
# writing positions and velocities in files
dump 1 all custom 1000 dump_*.lmc id mass type element x y z fx fy fz
dump_modify 1 element Li B S sort id
run 1000000
  update every 1 steps, delay 5 steps, check yes
Step Temp PotEng TotEng Press c_1[1] c_1[2] c_1[3] c_1[4] c_2[1] c_2[2] c_2[3] c_2[4] c_3[1] c_3[2] c_3[3] c_3[4]
0         1000   -13282.343   -13275.233    7511.3699            0 3.1554436e-30 3.1554436e-30 6.3108872e-30            0            0            0            0 7.8886091e-31            0 3.1554436e-30 3.9443045e-30
Averages over the last 5001 of 10001 rows, steps 500000 to 1000000:
Temp PotEng TotEng Press c_1[1] c_1[2] c_1[3] c_1[4] c_2[1] c_2[2] c_2[3] c_2[4] c_3[1] c_3[2] c_3[3] c_3[4]
3804.2 -13792 -13765 28574.8 828.169 418.659 526.827 1773.65 57.5368 85.7803 40.4041 183.721 86.3332 70.4309 54.6 211.364
Loop time of 10489.3 on 4 procs for 1000000 steps with 56 atoms
